European  Gridlabd Model/output_current_1.csv
# output_current_1.csv run at 2012-04-08 00:30:00 UTC on 1892 links
link_name,currA_mag,currA_angle,currB_mag,currB_angle,currC_mag,currC_angle
Source_Impedance,1.161441,-0.015540,1.160663,3.568552,0.509584,1.777996
transformer_34,0.000643,-1.392852,0.000000,0.000000,0.000000,0.000000
tline_34,0.000000,3.956493,0.000000,0.091977,0.000000,2.194358
TR1,1.161441,-0.015540,1.160663,3.568552,0.509584,1.777996
LINE1,13.543853,-0.839392,45.100196,3.348231,13.447209,1.249630
LINE2,13.543853,-0.839392,45.100196,3.348231,13.447209,1.249630
LINE3,13.543853,-0.839392,45.100196,3.348231,13.447209,1.249630
LINE4,13.543853,-0.839392,45.100196,3.348231,13.447209,1.249630
LINE5,13.543853,-0.839392,45.100196,3.348231,13.447209,1.249630
LINE6,13.543853,-0.839392,45.100196,3.348231,13.447209,1.249630
LINE7,13.543853,-0.839392,45.100196,3.348231,13.447209,1.249630
LINE8,13.543853,-0.839392,45.100196,3.348231,13.447209,1.249630
LINE9,13.543853,-0.839392,45.100196,3.348231,13.447209,1.249630
LINE10,13.543853,-0.839392,45.100196,3.348231,13.447209,1.249630
LINE11,13.543853,-0.839392,45.100196,3.348231,13.447209,1.249630
LINE12,13.543853,-0.839392,45.100196,3.348231,13.447209,1.249630
LINE13,13.543853,-0.839392,45.100196,3.348231,13.447209,1.249630
LINE14,13.543853,-0.839392,45.100196,3.348231,13.447209,1.249630
LINE15,0.000000,-1.500777,0.000000,3.187968,0.000000,-1.568112
LINE16,13.543853,-0.839392,45.100196,3.348231,13.447209,1.249630
LINE17,0.000000,4.442478,0.000000,2.794910,0.000000,-1.570343
LINE18,13.543853,-0.839392,45.100196,3.348231,13.447209,1.249630
LINE19,0.000000,3.727387,0.000000,1.926371,0.000000,-1.559611
LINE20,13.543853,-0.839392,45.100196,3.348231,13.447209,1.249630
LINE21,0.000000,3.902059,0.000000,2.009512,0.000000,-1.544991
LINE22,13.543853,-0.839392,45.100196,3.348231,13.447209,1.249630
LINE23,0.000000,4.507604,0.000000,2.653013,0.000000,-0.024932
LINE24,13.543853,-0.839392,45.100196,3.348231,13.447209,1.249630
LINE25,0.000000,-1.317429,0.000000,3.281809,0.000000,1.555630
LINE26,0.213432,-0.842674,0.000000,-1.539828,0.000000,3.007610
LINE27,13.330422,-0.839339,45.100196,3.348231,13.447209,1.249630
LINE28,0.000000,-1.430580,0.000000,3.704663,0.000000,1.565393
LINE29,0.000643,-1.392852,0.000000,1.443722,0.000000,1.582850
LINE30,0.212884,-0.841095,0.000000,-1.507452,0.000000,3.983397
LINE31,13.330422,-0.839339,45.100196,3.348231,13.447209,1.249630
LINE32,0.000000,-1.236958,0.000000,4.202979,0.000000,1.581786
LINE34,0.212884,-0.841095,0.000000,-0.820870,0.000000,2.168864
LINE35,0.000000,2.656480,0.373381,3.346755,0.000000,1.511241
LINE36,13.330422,-0.839339,44.726816,3.348243,13.447209,1.249630
LINE37,0.000000,-1.252704,0.000000,4.197500,0.000000,1.585297
LINE38,0.212884,-0.841095,0.000000,-1.244612,0.000000,1.619213
LINE39,0.000000,2.564751,0.218155,3.346756,0.000000,1.507639
LINE40,0.000000,1.912520,0.155226,3.346755,0.000000,4.684808
LINE41,13.330422,-0.839339,44.726816,3.348243,13.447209,1.249630
LINE42,0.000000,2.785639,0.000000,3.389941,0.000000,2.504906
LINE43,0.000000,4.687457,0.000000,4.687457,0.000000,1.596602
LINE44,0.212884,-0.841095,0.000000,-0.957678,0.000000,4.671609
LINE45,0.000000,2.639797,0.218155,3.346756,0.000000,1.536518
LINE46,0.000000,2.958160,0.155226,3.346755,0.000000,-1.339865
LINE47,13.330422,-0.839339,44.726816,3.348243,13.447209,1.249630
LINE48,0.000000,2.863840,0.000000,3.429120,0.000000,2.353000
LINE49,0.000000,-1.007726,0.000000,-1.132081,0.000000,1.600497
LINE50,0.212884,-0.841095,0.000000,0.228430,0.000000,1.314063
LINE51,0.000000,2.941246,0.218155,3.346756,0.000000,1.516828
LINE52,13.330422,-0.839339,44.726816,3.348243,13.447209,1.249630
LINE53,0.000000,3.593871,0.000000,-0.368367,0.000000,4.417561
LINE54,0.000000,2.846163,0.000000,3.451946,0.000000,1.946761
LINE55,0.000000,-1.415875,0.000000,4.687457,0.000000,1.623346
LINE56,0.212884,-0.841095,0.000000,0.383524,0.000000,4.650011
LINE57,0.000000,4.529423,0.218155,3.346756,0.000000,1.532988
LINE58,13.330422,-0.839339,44.726816,3.348243,13.447209,1.249630
LINE59,0.000000,3.033865,0.000000,-0.185326,0.000000,4.597490
LINE60,0.000000,3.067882,0.000000,3.238697,0.000000,1.744388
LINE61,0.000000,-0.887102,0.000000,4.099454,0.000000,1.645146
LINE62,0.212884,-0.841095,0.000000,0.957130,0.000000,4.673611
LINE63,0.000000,4.054657,0.218155,3.346756,0.000000,1.031995
LINE64,10.267094,-0.839161,44.726816,3.348243,13.447209,1.249630
LINE65,3.063329,-0.839936,0.000000,1.688000,0.000000,-1.277585
LINE66,0.000000,3.423996,0.000000,0.019757,0.000000,4.227631
LINE67,0.000000,2.856285,0.000000,3.922813,0.000000,1.659292
LINE68,0.000000,-1.132081,0.000000,4.687457,0.000000,1.618490
LINE69,0.212884,-0.841095,0.000000,0.131681,0.000000,1.314066
LINE70,0.000000,2.939687,0.218155,3.346756,0.000000,-1.387309
LINE71,10.267094,-0.839161,44.726816,3.348243,13.447209,1.249630
LINE72,1.581748,-0.839936,0.000000,3.378070,0.000000,4.596870
LINE73,1.481581,-0.839936,0.000000,3.457584,0.000000,1.791623
LINE74,0.000000,3.513279,0.000000,-0.225711,0.000000,3.478566
LINE75,0.000000,2.742318,0.000000,3.386223,0.000000,1.624698
LINE76,0.000000,-1.481936,0.000000,4.687457,0.000000,1.654646
LINE77,0.000000,3.375040,0.218155,3.346756,0.000000,4.675692
LINE78,10.267094,-0.839161,44.726816,3.348243,13.447209,1.249630
LINE79,0.000000,3.673002,0.000000,-0.417334,0.000000,2.970343
LINE80,0.000000,2.696842,0.000000,3.468552,0.000000,1.642860
LINE81,0.000000,-1.471373,0.000000,4.687457,0.000000,1.641786
LINE82,0.000000,3.065120,0.218155,3.346756,0.000000,-1.518441
LINE83,10.267094,-0.839161,44.726816,3.348243,13.447209,1.249630
LINE84,0.000000,-1.560207,0.000000,0.106192,0.000000,4.350302
LINE85,0.000000,2.673220,0.000000,3.483825,0.000000,1.647212
LINE86,0.000000,-1.410380,0.000000,4.306951,0.000000,1.641277
LINE87,10.267094,-0.839161,44.726816,3.348243,13.447209,1.249630
LINE88,0.000000,-0.201631,0.000000,-0.201631,0.000000,2.997100
LINE89,0.000000,2.674982,0.000000,3.623604,0.000000,1.657570
LINE90,0.000000,4.507604,0.000000,4.223809,0.000000,1.623443
LINE91,10.267094,-0.839161,44.726816,3.348243,13.447209,1.249630
LINE92,0.000000,2.787964,0.000000,3.586026,0.000000,1.675856
LINE93,0.000000,3.760162,0.000000,4.687457,0.000000,1.590756
LINE94,10.267094,-0.839161,44.726816,3.348243,13.447209,1.249630
LINE95,0.000000,2.903009,0.000000,2.731889,0.000000,1.721016
LINE96,0.000000,2.871682,0.000000,0.438716,0.000000,3.116661
LINE97,10.267094,-0.839161,44.726816,3.348243,13.447209,1.249630
LINE98,0.000000,2.734311,0.000000,2.671131,0.000000,1.857810
LINE99,0.000000,3.580308,0.000000,0.000000,0.000000,4.699175
LINE100,10.267094,-0.839161,44.726816,3.348243,13.447209,1.249630
LINE101,0.000000,2.398166,0.000000,3.237483,0.000000,1.976649
LINE102,0.000000,0.000000,0.000000,0.000000,0.000000,3.116661
LINE103,0.805219,-0.839517,5.731679,3.347772,0.254981,1.249921
LINE104,9.461874,-0.839131,38.995138,3.348312,13.192228,1.249625
LINE105,0.000000,2.461298,0.000000,3.291107,0.000000,2.215281
LINE106,0.805219,-0.839517,5.731679,3.347772,0.254981,1.249921
LINE107,9.461874,-0.839131,38.995138,3.348312,13.192228,1.249625
LINE108,0.000000,2.512373,0.000000,3.151527,0.000000,2.372443
LINE109,0.805219,-0.839517,5.731679,3.347772,0.254981,1.249921
LINE110,9.461874,-0.839131,38.995138,3.348312,13.192228,1.249625
LINE111,0.000000,2.516983,0.000000,3.216875,0.000000,2.966981
LINE112,0.805219,-0.839517,5.731679,3.347772,0.254981,1.249921
LINE113,9.461874,-0.839131,38.995138,3.348312,13.192228,1.249625
LINE114,0.000000,2.516295,0.000000,3.217030,0.000000,2.976185
LINE115,0.805219,-0.839517,5.731679,3.347772,0.254981,1.249921
LINE116,0.250277,-0.839307,24.675404,3.348325,0.919804,1.249503
LINE117,9.211597,-0.839126,14.319733,3.348290,12.272424,1.249634
LINE118,0.000000,2.528424,0.000000,3.227436,0.000000,2.805933
LINE119,0.805219,-0.839517,5.731679,3.347772,0.254981,1.249921
LINE120,0.000000,4.099454,0.000000,1.545864,0.000000,-1.551811
LINE121,0.250277,-0.839307,24.675404,3.348325,0.919804,1.249503
LINE122,9.211597,-0.839126,14.319733,3.348290,12.272424,1.249634
LINE123,0.000000,2.541561,0.000000,3.223355,0.000000,3.255978
LINE124,0.805219,-0.839517,5.731679,3.347772,0.254981,1.249921
LINE125,0.000000,4.687457,0.000000,2.009512,0.000000,-1.546289
LINE126,0.250277,-0.839307,24.675404,3.348325,0.919804,1.249503
LINE127,9.211597,-0.839126,14.319733,3.348290,12.272424,1.249634
LINE128,0.000000,2.526602,0.000000,3.217589,0.000000,2.050326
LINE129,0.805219,-0.839517,5.731679,3.347772,0.254981,1.249921
LINE130,0.000000,-1.007726,0.000000,1.545864,0.000000,-1.546939
LINE131,0.250277,-0.839308,0.000000,3.609951,0.000000,4.638600
LINE132,0.000000,0.489052,24.675404,3.348325,0.919804,1.249503
LINE133,9.211597,-0.839126,14.319733,3.348290,12.272424,1.249634
LINE134,0.000000,2.544187,0.000000,3.177994,0.000000,2.309798
LINE135,0.805219,-0.839517,5.731679,3.347772,0.254981,1.249921
LINE136,0.000000,-1.076582,0.000000,2.951512,0.000000,-1.555906
LINE137,0.250277,-0.839308,0.000000,3.635531,0.000000,4.630889
LINE138,0.000000,0.489131,24.675404,3.348325,0.919804,1.249503
LINE139,9.211597,-0.839126,14.319733,3.348290,12.272424,1.249634
LINE140,0.000000,2.531859,0.000000,3.175393,0.000000,2.289547
LINE141,0.805219,-0.839517,5.731679,3.347772,0.254981,1.249921
LINE142,0.000000,-0.810330,0.000000,-0.488580,0.000000,-1.560586
LINE143,0.250277,-0.839308,0.000000,3.663884,0.000000,4.641553
LINE144,0.000000,0.483999,24.675404,3.348325,0.919804,1.249503
LINE145,9.211597,-0.839126,14.319733,3.348290,12.272424,1.249634
LINE146,0.000000,2.619297,0.000000,3.130808,0.000000,1.804934
LINE147,0.805219,-0.839517,5.731679,3.347772,0.254981,1.249921
LINE148,0.000000,4.687457,0.000000,3.116661,0.000000,-1.564488
LINE149,0.250277,-0.839308,0.000000,3.581805,0.000000,4.625270
LINE150,0.000000,0.533166,0.000000,1.526481,0.919804,1.249503
LINE151,0.000000,-0.326219,24.675404,3.348325,0.000000,1.549314
LINE152,9.211597,-0.839126,14.319733,3.348290,12.272424,1.249634
LINE153,0.000000,2.501329,0.000000,2.943373,0.000000,1.218616
LINE154,0.805219,-0.839517,5.731679,3.347772,0.254981,1.249921
LINE155,0.000000,3.580308,0.000000,4.687457,0.000000,-1.563838
LINE156,0.250277,-0.839308,0.000000,3.604413,0.000000,4.634260
LINE157,0.000000,0.537139,0.000000,1.532863,0.919804,1.249503
LINE158,0.000000,-0.310007,24.675404,3.348325,0.000000,1.541355
LINE159,9.211597,-0.839126,14.319733,3.348290,12.272424,1.249634
LINE160,0.000000,2.496092,0.000000,3.697604,0.000000,1.704408
LINE161,0.000000,2.974628,4.248418,3.347790,0.000000,4.624936
LINE162,0.805219,-0.839517,1.483262,3.347721,0.254981,1.249921
LINE163,0.000000,2.951512,0.000000,-1.132081,0.000000,-1.566830
LINE164,0.250277,-0.839308,0.000000,3.600645,0.000000,4.633157
LINE165,0.000000,0.530602,0.000000,1.519415,0.919804,1.249503
LINE166,0.000000,-0.357882,24.675404,3.348325,0.000000,1.545950
LINE167,9.211597,-0.839126,14.319733,3.348290,12.272424,1.249634
LINE168,0.000000,3.997637,0.000000,3.054465,0.000000,4.530441
LINE169,0.000000,1.721023,4.248418,3.347790,0.000000,4.702591
LINE170,0.805219,-0.839517,1.483262,3.347721,0.254981,1.249921
LINE171,0.000000,1.545864,0.000000,4.687457,0.000000,-1.552786
LINE172,0.250277,-0.839308,0.000000,3.588493,0.000000,4.630688
LINE173,0.000000,0.529301,0.000000,1.513320,0.000000,-0.783664
LINE174,0.000000,2.877980,0.000000,1.340106,0.919804,1.249503
LINE175,0.000000,-0.427976,24.675404,3.348325,0.000000,1.544014
LINE176,9.211597,-0.839126,14.319733,3.348290,12.272424,1.249634
LINE177,0.000000,2.973658,4.248418,3.347790,0.000000,1.775314
LINE178,0.805219,-0.839517,1.483262,3.347721,0.000000,0.042281
LINE179,0.000000,3.427874,0.000000,-0.626715,0.254981,1.249921
LINE180,0.000000,4.687457,0.000000,4.306951,0.000000,-0.024932
LINE181,0.250277,-0.839308,0.000000,3.672430,0.000000,4.624415
LINE182,0.000000,0.468066,0.000000,1.576395,0.000000,-0.803419
LINE183,0.000000,2.821604,0.000000,1.298461,0.919804,1.249503
LINE184,0.000000,2.827123,24.675404,3.348325,0.000000,1.564583
LINE185,9.211597,-0.839126,14.319733,3.348290,12.272424,1.249634
LINE186,0.805219,-0.839517,1.483262,3.347721,0.000000,0.042578
LINE187,0.000000,3.432821,0.000000,-0.628430,0.254981,1.249921
LINE188,0.000000,4.687457,0.000000,4.687457,0.000000,0.000000
LINE189,0.250277,-0.839308,0.000000,3.648453,0.000000,4.629385
LINE190,0.000000,1.882897,0.000000,-1.261949,0.000000,-0.830962
LINE191,0.000000,0.285189,0.000000,1.563416,0.000000,-0.563241
LINE192,0.000000,2.836254,0.000000,1.057114,0.919804,1.249503
LINE193,0.000000,3.240086,24.675404,3.348325,0.000000,1.565692
LINE194,9.211597,-0.839126,14.319733,3.348290,12.272424,1.249634
LINE195,0.805219,-0.839517,1.483262,3.347721,0.000000,0.192934
LINE196,0.000000,3.058780,0.000000,3.481354,0.108680,1.249921
LINE197,0.000000,3.441747,0.000000,-0.619705,0.146301,1.249921
LINE198,0.000000,-0.488580,0.000000,0.220047,0.000000,4.652315
LINE199,0.250277,-0.839308,0.000000,3.604811,0.000000,4.626225
LINE200,0.000000,0.467429,0.000000,3.187962,0.000000,1.173245
LINE201,0.000000,0.314758,0.000000,1.504263,0.000000,-0.769043
LINE202,0.000000,2.380877,0.000000,1.000758,0.919804,1.249503
LINE203,0.000000,3.384532,24.675404,3.348325,0.000000,1.559811
LINE204,9.211597,-0.839126,14.319733,3.348290,12.272424,1.249634
LINE205,0.805219,-0.839517,0.000000,4.130676,0.000000,1.456229
LINE206,0.000000,3.096889,1.483262,3.347721,0.000000,-0.053118
LINE207,0.000000,-0.029375,0.000000,0.295574,0.108680,1.249921
LINE208,0.000000,3.417767,0.000000,-0.356878,0.146301,1.249921
LINE209,0.000000,2.653013,0.000000,-0.488580,0.000000,-1.564488
LINE210,0.250277,-0.839308,0.000000,3.654238,0.000000,4.624145
LINE211,0.000000,0.423171,0.000000,1.326629,0.000000,-0.360822
LINE212,0.000000,2.853445,0.000000,1.180593,0.919804,1.249503
LINE213,0.000000,3.261326,24.675404,3.348325,0.000000,1.562793
LINE214,9.211597,-0.839126,14.319733,3.348290,12.272424,1.249634
LINE215,0.805219,-0.839517,0.000000,1.455758,0.000000,1.694021
LINE216,0.000000,2.824798,1.483262,3.347721,0.000000,0.003149
LINE217,0.000000,3.971918,0.000000,3.636294,0.146301,1.249921
LINE218,0.000000,0.000000,0.000000,0.000000,0.000000,3.116661
LINE219,0.250277,-0.839308,0.000000,3.628355,0.000000,4.624600
LINE220,0.000000,-0.039874,0.000000,1.419191,0.000000,-0.241153
LINE221,0.000000,2.818527,0.000000,1.302151,0.919804,1.249503
LINE222,0.000000,3.330773,24.675404,3.348325,0.000000,1.559206
LINE223,9.211597,-0.839126,14.319733,3.348290,12.272424,1.249634
LINE224,0.805219,-0.839517,0.000000,2.180168,0.000000,4.640119
LINE225,0.000000,3.331325,1.483262,3.347721,0.000000,0.232006
LINE226,0.000000,-0.296809,0.000000,3.772514,0.146301,1.249921
LINE227,0.250277,-0.839308,0.000000,3.686172,0.000000,4.601850
LINE228,0.000000,-0.093226,0.000000,1.128951,0.000000,-1.311680
LINE229,0.000000,2.914238,0.000000,1.401845,0.919804,1.249503
LINE230,0.000000,3.509865,24.675404,3.348325,0.000000,1.563441
LINE231,9.211597,-0.839126,14.319733,3.348290,12.272424,1.249634
LINE232,0.000000,2.104746,1.483262,3.347721,0.000000,4.677707
LINE233,0.000000,2.494526,0.000000,-0.650644,0.000000,2.552059
LINE234,0.000000,-0.245105,0.000000,3.610962,0.146301,1.249921
LINE235,0.250277,-0.839308,0.000000,3.543359,0.000000,4.620607
LINE236,0.000000,0.022369,0.000000,1.561005,0.000000,4.669911
LINE237,0.000000,3.069987,0.000000,1.811668,0.919804,1.249503
LINE238,0.000000,-0.984842,24.675404,3.348325,0.000000,1.560118
LINE239,9.211597,-0.839126,14.319733,3.348290,12.272424,1.249634
LINE240,0.000000,1.823122,1.483262,3.347721,0.000000,-1.474016
LINE241,0.000000,0.530945,0.000000,-0.087267,0.146301,1.249921
LINE242,0.250277,-0.839308,0.000000,3.399562,0.000000,4.587872
LINE243,0.000000,-0.056612,0.000000,2.281215,0.000000,-1.331818
LINE244,0.000000,3.082015,0.000000,1.777014,0.919804,1.249503
LINE245,0.000000,3.674292,24.675404,3.348325,0.000000,1.562089
LINE246,9.211597,-0.839126,14.319733,3.348290,12.272424,1.249634
LINE247,0.000000,2.992571,1.082954,3.347722,0.000000,4.663512
LINE248,0.000000,2.585418,0.400307,3.347718,0.000000,-1.440459
LINE249,0.000000,0.799532,0.000000,0.193848,0.146301,1.249921
LINE250,0.250277,-0.839308,0.000000,3.072895,0.000000,4.545045
LINE251,0.000000,0.397004,0.000000,2.655242,0.000000,-1.560898
LINE252,0.000000,3.044376,0.000000,1.520267,0.919804,1.249503
LINE253,0.000000,3.723101,24.675404,3.348325,0.000000,1.561264
LINE254,0.254500,-0.839301,0.000000,-0.508820,0.000000,1.599953
LINE255,8.957097,-0.839121,14.319733,3.348290,12.272424,1.249634
LINE256,0.000000,-0.621640,0.000000,3.082391,0.146301,1.249921
LINE257,0.250277,-0.839308,0.000000,3.298781,0.000000,1.639972
LINE258,0.000000,-0.540299,0.000000,3.622295,0.000000,4.541947
LINE259,0.000000,3.089629,0.000000,1.477558,0.919804,1.249503
LINE260,0.000000,3.866190,24.675404,3.348325,0.000000,1.427549
LINE261,0.254500,-0.839301,0.000000,-0.507870,0.000000,1.596257
LINE262,8.957097,-0.839121,14.319733,3.348290,12.272424,1.249634
LINE263,0.000000,3.934698,0.000000,3.934698,0.146301,1.249921
LINE264,0.250277,-0.839308,0.000000,3.991188,0.000000,2.307799
LINE265,0.000000,-1.166669,0.000000,3.754886,0.000000,-1.374117
LINE266,0.000000,2.994438,0.000000,1.238300,0.919804,1.249503
LINE267,0.000000,2.930833,5.039622,3.348272,0.000000,1.353859
LINE268,0.000000,2.912834,19.635782,3.348339,0.000000,4.152233
LINE269,0.254500,-0.839301,0.000000,-0.491452,0.000000,1.598534
LINE270,0.000000,4.534992,0.000000,3.348781,0.334629,1.249548
LINE271,8.957097,-0.839121,14.319733,3.348290,11.937795,1.249636
LINE272,0.250277,-0.839308,0.000000,4.300311,0.000000,3.020543
LINE273,0.000000,1.761015,0.000000,3.481179,0.000000,4.611058
LINE274,0.000000,2.774710,0.000000,1.131635,0.919804,1.249503
LINE275,0.000000,0.576919,5.039622,3.348272,0.000000,1.358892
LINE276,0.000000,3.313673,19.635782,3.348339,0.000000,1.633239
LINE277,0.254500,-0.839301,0.000000,-0.496108,0.000000,1.600030
LINE278,0.000000,-1.224808,0.000000,3.318536,0.334629,1.249548
LINE279,8.957097,-0.839121,14.319733,3.348290,11.937795,1.249636
LINE280,0.250277,-0.839308,0.000000,0.587987,0.000000,4.702464
LINE281,0.000000,0.799339,0.000000,3.415613,0.000000,2.937948
LINE282,0.000000,2.987262,0.000000,0.972381,0.919804,1.249503
LINE283,0.000000,3.466882,19.635782,3.348339,0.000000,2.141762
LINE284,0.254500,-0.839301,0.000000,-0.444441,0.000000,1.601543
LINE285,0.000000,-1.556356,0.000000,3.700758,0.334629,1.249548
LINE286,5.426279,-0.838929,9.477207,3.348256,1.300953,1.249264
LINE287,3.530819,-0.839417,4.842526,3.348356,10.636842,1.249682
LINE288,0.250277,-0.839308,0.000000,2.862319,0.000000,-1.356007
LINE289,0.000000,4.094764,0.000000,0.831712,0.000000,1.273436
LINE290,0.000000,4.136812,0.000000,-0.794495,0.919804,1.249503
LINE291,0.000000,1.214578,0.000000,2.253937,0.000000,-1.550777
LINE292,0.000000,2.362955,19.635782,3.348339,0.000000,4.348895
LINE293,0.254500,-0.839301,0.000000,-0.482835,0.000000,1.596232
LINE294,0.000000,-1.392738,0.000000,3.748789,0.334629,1.249548
LINE295,5.426279,-0.838929,9.477207,3.348256,1.300953,1.249264
LINE296,3.530819,-0.839417,4.842526,3.348356,10.636842,1.249682
LINE297,0.000000,2.918030,0.000000,-1.070752,0.919804,1.249503
LINE298,0.000000,0.360693,0.000000,2.299127,0.000000,1.421371
LINE299,0.000000,2.539917,19.635782,3.348339,0.000000,3.268972
LINE300,0.254500,-0.839301,0.000000,-0.507971,0.000000,1.592519
LINE301,0.000000,-1.542018,0.000000,4.116306,0.334629,1.249548
LINE302,5.426279,-0.838929,9.477207,3.348256,1.300953,1.249264
LINE303,3.530819,-0.839417,4.842526,3.348356,10.636842,1.249682
LINE304,0.000000,2.039556,0.000000,3.651270,0.919804,1.249503
LINE305,0.000000,3.754519,0.000000,0.710405,0.000000,-0.462191
LINE306,0.000000,0.907242,19.635782,3.348339,0.000000,4.595985
LINE307,0.254500,-0.839301,0.000000,-0.617500,0.000000,1.592416
LINE308,0.000000,4.372453,0.000000,3.968497,0.334629,1.249548
LINE309,5.426279,-0.838929,9.477207,3.348256,1.300953,1.249264
LINE310,3.530819,-0.839417,4.842526,3.348356,10.636842,1.249682
LINE311,0.000000,3.273329,0.000000,1.833592,0.919804,1.249503
LINE312,0.000000,2.599368,0.000000,0.702174,0.000000,4.677550
LINE313,0.000000,3.670087,19.635782,3.348339,0.000000,1.596631
LINE314,0.254500,-0.839301,0.000000,-0.653671,0.000000,1.595104
LINE315,0.000000,3.386342,0.000000,3.437202,0.334629,1.249548
LINE316,1.806871,-0.839177,0.000000,0.481622,0.000000,-1.537077
LINE317,3.619408,-0.838805,9.477207,3.348256,1.300953,1.249264
LINE318,3.530819,-0.839417,4.842526,3.348356,10.636842,1.249682
LINE319,0.000000,-1.358543,0.000000,-1.358543,0.919804,1.249503
LINE320,0.000000,2.270864,0.000000,1.471141,0.000000,-1.549494
LINE321,0.254500,-0.839301,0.000000,-0.508946,0.000000,1.598142
LINE322,0.000000,2.020721,0.000000,3.083474,0.334629,1.249548
LINE323,1.806871,-0.839177,0.000000,0.465453,0.000000,-1.546263
LINE324,3.619408,-0.838805,9.477207,3.348256,1.300953,1.249264
LINE325,3.530819,-0.839417,4.842526,3.348356,10.636842,1.249682
LINE326,0.000000,-0.149575,0.000000,-0.149575,0.000000,3.066247
LINE327,0.254500,-0.839301,0.000000,-0.612747,0.000000,1.600870
LINE328,0.000000,0.227077,0.000000,3.265007,0.334629,1.249548
LINE329,1.806871,-0.839177,0.000000,0.465516,0.000000,-1.548841
LINE330,0.000000,-0.670072,0.000000,3.994210,0.196593,1.249374
LINE331,3.619408,-0.838805,9.477207,3.348256,1.104359,1.249244
LINE332,3.530819,-0.839417,4.842526,3.348356,10.636842,1.249682
LINE333,0.254500,-0.839301,0.000000,-0.474420,0.000000,1.607318
LINE334,0.000000,0.026924,0.000000,0.851522,0.334629,1.249548
LINE335,1.806871,-0.839177,0.000000,0.464086,0.000000,-1.551802
LINE336,0.000000,4.605911,0.000000,-0.154648,0.196593,1.249374
LINE337,0.000000,-1.023637,6.595016,3.348281,0.000000,3.846614
LINE338,3.619408,-0.838805,2.882191,3.348200,1.104359,1.249244
LINE339,3.530819,-0.839417,4.842526,3.348356,10.636842,1.249682
LINE340,0.254500,-0.839301,0.000000,-0.465612,0.000000,1.608148
LINE341,0.000000,-0.603283,0.000000,3.100190,0.334629,1.249548
LINE342,1.422969,-0.839176,0.000000,-0.943567,0.000000,4.620268
LINE343,0.383902,-0.839181,0.000000,0.484447,0.000000,-1.551863
LINE344,0.000000,-0.983994,6.595016,3.348281,0.000000,3.783858
LINE345,3.619408,-0.838805,2.882191,3.348200,1.104359,1.249244
LINE346,3.530819,-0.839417,4.842526,3.348356,10.636842,1.249682
LINE347,0.254500,-0.839301,0.000000,-0.679562,0.000000,1.596992
LINE348,1.422969,-0.839176,0.000000,3.717644,0.000000,1.510149
LINE349,0.383902,-0.839181,0.000000,0.517319,0.000000,-1.547064
LINE350,0.000000,-1.340464,6.595016,3.348281,0.000000,4.152333
LINE351,3.619408,-0.838805,2.882191,3.348200,1.104359,1.249244
LINE352,3.530819,-0.839417,4.842526,3.348356,10.636842,1.249682
LINE353,0.254500,-0.839301,0.000000,-0.629865,0.000000,1.602628
LINE354,0.383902,-0.839181,0.000000,0.429111,0.000000,-1.211369
LINE355,0.000000,3.062455,6.595016,3.348281,0.000000,4.623911
LINE356,3.619408,-0.838805,2.882191,3.348200,1.104359,1.249244
LINE357,3.530819,-0.839417,4.842526,3.348356,10.636842,1.249682
LINE358,0.254500,-0.839301,0.000000,-1.041025,0.000000,1.581633
LINE359,0.383902,-0.839181,0.000000,0.372828,0.000000,1.483786
LINE360,0.000000,3.733273,6.595016,3.348281,0.000000,4.687209
LINE361,3.619408,-0.838805,2.882191,3.348200,1.104359,1.249244
LINE362,3.530819,-0.839417,4.842526,3.348356,10.636842,1.249682
LINE363,0.254500,-0.839301,0.000000,-0.918508,0.000000,1.618738
LINE364,0.383902,-0.839181,0.000000,0.284234,0.000000,-1.101078
LINE365,0.000000,2.584992,6.595016,3.348281,0.000000,4.697652
LINE366,3.619408,-0.838805,2.882191,3.348200,1.104359,1.249244
LINE367,3.530819,-0.839417,4.842526,3.348356,10.636842,1.249682
LINE368,0.254500,-0.839301,0.000000,4.211738,0.000000,1.583058
LINE369,0.383902,-0.839181,0.000000,-0.235769,0.000000,-0.869398
LINE370,0.000000,3.003247,6.595016,3.348281,0.000000,4.661501
LINE371,3.619408,-0.838805,2.882191,3.348200,1.104359,1.249244
LINE372,3.530819,-0.839417,4.842526,3.348356,10.636842,1.249682
LINE373,0.254500,-0.839301,0.000000,0.153135,0.000000,1.352628
LINE374,0.383902,-0.839181,0.000000,0.939208,0.000000,1.587876
LINE375,0.000000,3.025225,6.595016,3.348281,0.000000,4.613969
LINE376,3.619408,-0.838805,2.882191,3.348200,1.104359,1.249244
LINE377,3.530819,-0.839417,4.842526,3.348356,10.323061,1.249686
LINE378,0.000000,2.310206,0.000000,3.820203,0.313781,1.249545
LINE379,0.254500,-0.839301,0.000000,1.530894,0.000000,-1.308012
LINE380,0.383902,-0.839181,0.000000,0.612574,0.000000,4.515259
LINE381,0.000000,2.966157,6.595016,3.348281,0.000000,4.628470
LINE382,3.619408,-0.838805,2.882191,3.348200,1.104359,1.249244
LINE383,3.530819,-0.839417,4.842526,3.348356,10.323061,1.249686
LINE384,0.000000,3.003082,0.000000,4.177944,0.313781,1.249545
LINE385,0.000000,0.934051,0.000000,2.290859,0.000000,1.523025
LINE386,0.254500,-0.839301,0.000000,0.238899,0.000000,4.645575
LINE387,0.383902,-0.839181,0.000000,-0.159530,0.000000,-0.308914
LINE388,0.000000,2.964443,6.595016,3.348281,0.000000,4.663191
LINE389,3.619408,-0.838805,2.882191,3.348200,1.104359,1.249244
LINE390,3.530819,-0.839417,4.842526,3.348356,10.323061,1.249686
LINE391,0.000000,2.992345,0.000000,4.203774,0.313781,1.249545
LINE392,0.000000,0.999193,0.000000,2.431336,0.000000,1.524562
LINE393,0.000000,2.496709,6.595016,3.348281,0.000000,-1.531694
LINE394,3.619408,-0.838805,2.882191,3.348200,1.104359,1.249244
LINE395,0.000000,2.563139,0.000000,0.096655,0.995893,1.249564
LINE396,3.530819,-0.839417,4.842526,3.348356,9.327169,1.249699
LINE397,0.000000,2.834102,0.000000,3.910531,0.313781,1.249545
LINE398,0.000000,1.149913,0.000000,2.488502,0.000000,1.530667
LINE399,0.000000,4.102732,6.595016,3.348281,0.000000,1.577461
LINE400,3.619408,-0.838805,2.882191,3.348200,1.104359,1.249244
LINE401,0.000000,2.555189,0.000000,0.079673,0.995893,1.249564
LINE402,3.530819,-0.839417,4.842526,3.348356,9.327169,1.249699
LINE403,0.000000,2.489852,0.000000,3.744707,0.313781,1.249545
LINE404,0.000000,-1.398286,0.000000,3.573070,0.000000,1.533735
LINE405,0.000000,1.928851,6.595016,3.348281,0.000000,1.522430
LINE406,3.619408,-0.838805,2.882191,3.348200,1.104359,1.249244
LINE407,0.000000,2.650970,0.000000,0.133819,0.995893,1.249564
LINE408,3.530819,-0.839417,4.842526,3.348356,9.327169,1.249699
LINE409,0.000000,-0.253958,0.000000,3.623236,0.000000,3.074155
LINE410,0.000000,1.875863,0.000000,0.074318,0.313781,1.249545
LINE411,0.000000,3.104322,0.000000,3.332804,0.000000,1.486490
LINE412,3.619408,-0.838805,2.882191,3.348200,1.104359,1.249244
LINE413,0.000000,2.653461,0.000000,0.076787,0.995893,1.249564
LINE414,3.530819,-0.839417,4.842526,3.348356,9.327169,1.249699
LINE415,0.000000,-0.214873,0.000000,3.700155,0.000000,3.401163
LINE416,0.000000,1.833923,0.000000,-0.546728,0.313781,1.249545
LINE417,0.000000,3.087878,0.000000,3.375700,0.000000,1.538768
LINE418,3.619408,-0.838805,2.882191,3.348200,1.104359,1.249244
LINE419,0.000000,2.708792,0.000000,0.096294,0.995893,1.249564
LINE420,3.530819,-0.839417,4.842526,3.348356,9.327169,1.249699
LINE421,0.000000,-0.060661,0.000000,3.640755,0.000000,3.407133
LINE422,0.000000,1.915373,0.000000,0.022825,0.313781,1.249545
LINE423,0.000000,3.011889,0.000000,3.752401,0.000000,1.518039
LINE424,3.619408,-0.838805,2.882191,3.348200,1.104359,1.249244
LINE425,0.000000,-1.117283,0.000000,-1.117283,0.000000,-0.323111
LINE426,0.000000,2.685590,0.000000,0.084632,0.995893,1.249564
LINE427,3.530819,-0.839417,4.842526,3.348356,9.327169,1.249699
LINE428,0.000000,-0.083606,0.000000,3.525922,0.000000,2.661502
LINE429,0.000000,1.991394,0.000000,-0.081552,0.313781,1.249545
LINE430,0.000000,2.975397,0.000000,3.766022,0.000000,1.515407
LINE431,3.619408,-0.838805,2.882191,3.348200,1.104359,1.249244
LINE432,0.000000,1.405491,0.000000,1.405491,0.000000,4.347753
LINE433,0.000000,2.700185,0.000000,0.091053,0.995893,1.249564
LINE434,3.530819,-0.839417,4.842526,3.348356,9.327169,1.249699
LINE435,0.000000,-0.065472,0.000000,3.449757,0.000000,2.342422
LINE436,0.000000,2.107863,0.000000,3.718501,0.313781,1.249545
LINE437,0.000000,2.865798,0.000000,3.688300,0.000000,1.516535
LINE438,3.619408,-0.838805,2.882191,3.348200,1.104359,1.249244
LINE439,0.000000,2.998785,0.000000,-0.201681,0.000000,-0.252062
LINE440,0.000000,2.724987,0.000000,0.105287,0.995893,1.249564
LINE441,3.530819,-0.839417,4.842526,3.348356,9.327169,1.249699
LINE442,0.000000,-0.204464,0.000000,3.466943,0.000000,2.145591
LINE443,0.000000,-0.814058,0.000000,-0.341215,0.313781,1.249545
LINE444,0.000000,1.825384,0.000000,4.196267,0.000000,1.511892
LINE445,3.619408,-0.838805,2.882191,3.348200,1.104359,1.249244
LINE446,0.000000,4.200999,0.000000,4.200999,0.000000,-0.703771
LINE447,0.000000,2.747693,0.000000,0.091818,0.995893,1.249564
LINE448,3.530819,-0.839417,4.842526,3.348356,9.327169,1.249699
LINE449,0.000000,-0.001877,0.000000,3.415821,0.000000,2.138052
LINE450,0.000000,3.046820,0.000000,-1.322420,0.313781,1.249545
LINE451,0.000000,1.154822,0.000000,4.136605,0.000000,1.501398
LINE452,3.619408,-0.838805,2.882191,3.348200,1.104359,1.249244
LINE453,0.000000,1.534599,0.000000,1.534599,0.000000,0.712145
LINE454,0.000000,2.778100,0.000000,0.139772,0.995893,1.249564
LINE455,3.530819,-0.839417,4.842526,3.348356,9.327169,1.249699
LINE456,0.000000,-0.081174,0.000000,3.335897,0.000000,1.931581
LINE457,0.000000,0.180302,0.000000,-0.217990,0.313781,1.249545
LINE458,0.000000,1.490026,0.000000,4.186725,0.000000,1.469975
LINE459,2.759525,-0.838789,2.882191,3.348200,1.104359,1.249244
LINE460,0.000000,2.730142,0.000000,0.111198,0.000000,-1.446332
LINE461,0.859883,-0.838857,0.000000,3.084613,0.000000,-1.464936
LINE462,0.000000,2.820928,0.000000,0.167354,0.995893,1.249564
LINE463,3.530819,-0.839417,4.842526,3.348356,9.327169,1.249699
LINE464,0.000000,0.011186,0.000000,3.288702,0.000000,1.615449
LINE465,0.000000,1.487556,0.000000,3.877499,0.000000,1.473730
LINE466,2.759525,-0.838789,2.882191,3.348200,1.104359,1.249244
LINE467,0.000000,4.504419,0.000000,1.461411,0.000000,-0.145406
LINE468,0.000000,0.668261,0.000000,-1.467749,0.000000,2.642652
LINE469,0.859883,-0.838857,0.000000,3.104194,0.000000,-1.455667
LINE470,0.000000,2.863212,0.000000,0.189461,0.995893,1.249564
...